Circuit: * C:\Users\M.H.Ataie\Desktop\CA1_DLD\1\2.asc

Direct Newton iteration for .op point succeeded.

Date: Fri Nov 13 16:17:47 2020
Total elapsed time: 0.390 seconds.

tnom = 27
temp = 27
method = modified trap
totiter = 23808
traniter = 23800
tranpoints = 5308
accept = 4280
rejected = 1028
matrix size = 14
fillins = 0
solver = Normal
Matrix Compiler1: 384 bytes object code size  0.1/0.1/[0.1]
Matrix Compiler2: 776 bytes object code size  0.1/0.1/[0.1]

